tests/data/upgrade-models/sb10_p1rhs25_1247_trans_301/p1rdt12732/PVDeployments/sb10_p1rhs25_1247_trans_301__p1rdt12732__random__4__195.dss
Redirect ../OpenDSS/Master.dss

// PV Scenario for 5938.432322110753 kW total size, Scenario type random, Sample 4 and penetration 195% (PV to load ratio) 
! =====================PV SCENARIO FILE==============================
New PVSystem.small_p1rlv30769_1_2_pv phases=1 bus1=p1rlv30769.1.2 kv=0.2402 irradiance=1 Pmpp=2.056 %Pmpp=100 kVA=2.056 conn=wye %cutin=0.1 %cutout=0.1 Vmaxpu=1.2
New PVSystem.small_p1rlv17441_1_2_pv phases=1 bus1=p1rlv17441.1.2 kv=0.2402 irradiance=1 Pmpp=12.092 %Pmpp=100 kVA=12.092 conn=wye %cutin=0.1 %cutout=0.1 Vmaxpu=1.2
New PVSystem.small_p1rlv30752_1_2_pv phases=1 bus1=p1rlv30752.1.2 kv=0.2402 irradiance=1 Pmpp=4.791 %Pmpp=100 kVA=4.791 conn=wye %cutin=0.1 %cutout=0.1 Vmaxpu=1.2
New PVSystem.small_p1rlv30728_1_2_pv phases=1 bus1=p1rlv30728.1.2 kv=0.2402 irradiance=1 Pmpp=41.605 %Pmpp=100 kVA=41.605 conn=wye %cutin=0.1 %cutout=0.1 Vmaxpu=1.2
New PVSystem.small_p1rlv27099_1_2_3_pv phases=3 bus1=p1rlv27099.1.2.3 kv=0.48 irradiance=1 Pmpp=64.589 %Pmpp=100 kVA=64.589 conn=wye %cutin=0.1 %cutout=0.1 Vmaxpu=1.2
New PVSystem.small_p1rlv15601_1_2_pv phases=1 bus1=p1rlv15601.1.2 kv=0.2402 irradiance=1 Pmpp=12.899 %Pmpp=100 kVA=12.899 conn=wye %cutin=0.1 %cutout=0.1 Vmaxpu=1.2
New PVSystem.small_p1rlv30938_1_2_pv phases=1 bus1=p1rlv30938.1.2 kv=0.2402 irradiance=1 Pmpp=29.437 %Pmpp=100 kVA=29.437 conn=wye %cutin=0.1 %cutout=0.1 Vmaxpu=1.2
New PVSystem.small_p1rlv31125_1_2_pv phases=1 bus1=p1rlv31125.1.2 kv=0.2402 irradiance=1 Pmpp=15.387 %Pmpp=100 kVA=15.387 conn=wye %cutin=0.1 %cutout=0.1 Vmaxpu=1.2
New PVSystem.small_p1rlv10493_1_2_pv phases=1 bus1=p1rlv10493.1.2 kv=0.2402 irradiance=1 Pmpp=14.215 %Pmpp=100 kVA=14.215 conn=wye %cutin=0.1 %cutout=0.1 Vmaxpu=1.2
New PVSystem.small_p1rlv11673_1_2_pv phases=1 bus1=p1rlv11673.1.2 kv=0.2402 irradiance=1 Pmpp=2.056 %Pmpp=100 kVA=2.056 conn=wye %cutin=0.1 %cutout=0.1 Vmaxpu=1.2
New PVSystem.small_p1rlv14334_1_2_pv phases=1 bus1=p1rlv14334.1.2 kv=0.2402 irradiance=1 Pmpp=32.583 %Pmpp=100 kVA=32.583 conn=wye %cutin=0.1 %cutout=0.1 Vmaxpu=1.2
New PVSystem.small_p1rlv27131_1_2_pv phases=1 bus1=p1rlv27131.1.2 kv=0.2402 irradiance=1 Pmpp=37.474 %Pmpp=100 kVA=37.474 conn=wye %cutin=0.1 %cutout=0.1 Vmaxpu=1.2
New PVSystem.small_p1rlv11685_1_2_pv phases=1 bus1=p1rlv11685.1.2 kv=0.2402 irradiance=1 Pmpp=23.162 %Pmpp=100 kVA=23.162 conn=wye %cutin=0.1 %cutout=0.1 Vmaxpu=1.2
New PVSystem.small_p1rlv13327_1_2_pv phases=1 bus1=p1rlv13327.1.2 kv=0.2402 irradiance=1 Pmpp=14.492 %Pmpp=100 kVA=14.492 conn=wye %cutin=0.1 %cutout=0.1 Vmaxpu=1.2
New PVSystem.small_p1rlv37289_1_2_pv phases=1 bus1=p1rlv37289.1.2 kv=0.2402 irradiance=1 Pmpp=13.247 %Pmpp=100 kVA=13.247 conn=wye %cutin=0.1 %cutout=0.1 Vmaxpu=1.2
New PVSystem.small_p1rlv37345_1_2_pv phases=1 bus1=p1rlv37345.1.2 kv=0.2402 irradiance=1 Pmpp=10.603 %Pmpp=100 kVA=10.603 conn=wye %cutin=0.1 %cutout=0.1 Vmaxpu=1.2
New PVSystem.small_p1rlv31171_1_2_pv phases=1 bus1=p1rlv31171.1.2 kv=0.2402 irradiance=1 Pmpp=24.8 %Pmpp=100 kVA=24.8 conn=wye %cutin=0.1 %cutout=0.1 Vmaxpu=1.2
New PVSystem.small_p1rlv34483_1_2_pv phases=1 bus1=p1rlv34483.1.2 kv=0.2402 irradiance=1 Pmpp=11.496 %Pmpp=100 kVA=11.496 conn=wye %cutin=0.1 %cutout=0.1 Vmaxpu=1.2
New PVSystem.small_p1rlv30861_1_2_pv phases=1 bus1=p1rlv30861.1.2 kv=0.2402 irradiance=1 Pmpp=25.354 %Pmpp=100 kVA=25.354 conn=wye %cutin=0.1 %cutout=0.1 Vmaxpu=1.2
New PVSystem.small_p1rlv27007_1_2_pv phases=1 bus1=p1rlv27007.1.2 kv=0.2402 irradiance=1 Pmpp=8.645 %Pmpp=100 kVA=8.645 conn=wye %cutin=0.1 %cutout=0.1 Vmaxpu=1.2
New PVSystem.small_p1rlv31197_1_2_pv phases=1 bus1=p1rlv31197.1.2 kv=0.2402 irradiance=1 Pmpp=6.572 %Pmpp=100 kVA=6.572 conn=wye %cutin=0.1 %cutout=0.1 Vmaxpu=1.2
New PVSystem.small_p1rlv27039_1_2_pv phases=1 bus1=p1rlv27039.1.2 kv=0.2402 irradiance=1 Pmpp=23.532 %Pmpp=100 kVA=23.532 conn=wye %cutin=0.1 %cutout=0.1 Vmaxpu=1.2
New PVSystem.small_p1rlv30832_1_2_pv phases=1 bus1=p1rlv30832.1.2 kv=0.2402 irradiance=1 Pmpp=10.765 %Pmpp=100 kVA=10.765 conn=wye %cutin=0.1 %cutout=0.1 Vmaxpu=1.2
New PVSystem.small_p1rlv31179_1_2_pv phases=1 bus1=p1rlv31179.1.2 kv=0.2402 irradiance=1 Pmpp=13.929 %Pmpp=100 kVA=13.929 conn=wye %cutin=0.1 %cutout=0.1 Vmaxpu=1.2
New PVSystem.small_p1rlv30910_1_2_pv phases=1 bus1=p1rlv30910.1.2 kv=0.2402 irradiance=1 Pmpp=14.548 %Pmpp=100 kVA=14.548 conn=wye %cutin=0.1 %cutout=0.1 Vmaxpu=1.2
New PVSystem.small_p1rlv28276_1_2_pv phases=1 bus1=p1rlv28276.1.2 kv=0.2402 irradiance=1 Pmpp=23.575 %Pmpp=100 kVA=23.575 conn=wye %cutin=0.1 %cutout=0.1 Vmaxpu=1.2
New PVSystem.small_p1rlv20341_1_2_pv phases=1 bus1=p1rlv20341.1.2 kv=0.2402 irradiance=1 Pmpp=2.43 %Pmpp=100 kVA=2.43 conn=wye %cutin=0.1 %cutout=0.1 Vmaxpu=1.2
New PVSystem.small_p1rlv20338_1_2_pv phases=1 bus1=p1rlv20338.1.2 kv=0.2402 irradiance=1 Pmpp=29.437 %Pmpp=100 kVA=29.437 conn=wye %cutin=0.1 %cutout=0.1 Vmaxpu=1.2
New PVSystem.small_p1rlv31188_1_2_pv phases=1 bus1=p1rlv31188.1.2 kv=0.2402 irradiance=1 Pmpp=18.759 %Pmpp=100 kVA=18.759 conn=wye %cutin=0.1 %cutout=0.1 Vmaxpu=1.2
New PVSystem.small_p1rlv24903_1_2_pv phases=1 bus1=p1rlv24903.1.2 kv=0.2402 irradiance=1 Pmpp=8.009 %Pmpp=100 kVA=8.009 conn=wye %cutin=0.1 %cutout=0.1 Vmaxpu=1.2
New PVSystem.small_p1rlv30842_1_2_pv phases=1 bus1=p1rlv30842.1.2 kv=0.2402 irradiance=1 Pmpp=11.844 %Pmpp=100 kVA=11.844 conn=wye %cutin=0.1 %cutout=0.1 Vmaxpu=1.2
New PVSystem.small_p1rlv30801_1_2_pv phases=1 bus1=p1rlv30801.1.2 kv=0.2402 irradiance=1 Pmpp=9.173 %Pmpp=100 kVA=9.173 conn=wye %cutin=0.1 %cutout=0.1 Vmaxpu=1.2
New PVSystem.small_p1rlv13941_1_2_pv phases=1 bus1=p1rlv13941.1.2 kv=0.2402 irradiance=1 Pmpp=12.312 %Pmpp=100 kVA=12.312 conn=wye %cutin=0.1 %cutout=0.1 Vmaxpu=1.2
New PVSystem.small_p1rlv30812_1_2_pv phases=1 bus1=p1rlv30812.1.2 kv=0.2402 irradiance=1 Pmpp=24.195 %Pmpp=100 kVA=24.195 conn=wye %cutin=0.1 %cutout=0.1 Vmaxpu=1.2
New PVSystem.small_p1rlv31153_1_2_pv phases=1 bus1=p1rlv31153.1.2 kv=0.2402 irradiance=1 Pmpp=7.106 %Pmpp=100 kVA=7.106 conn=wye %cutin=0.1 %cutout=0.1 Vmaxpu=1.2
New PVSystem.small_p1rlv30859_1_2_pv phases=1 bus1=p1rlv30859.1.2 kv=0.2402 irradiance=1 Pmpp=4.791 %Pmpp=100 kVA=4.791 conn=wye %cutin=0.1 %cutout=0.1 Vmaxpu=1.2
New PVSystem.small_p1rlv16386_1_2_pv phases=1 bus1=p1rlv16386.1.2 kv=0.2402 irradiance=1 Pmpp=23.176 %Pmpp=100 kVA=23.176 conn=wye %cutin=0.1 %cutout=0.1 Vmaxpu=1.2
New PVSystem.small_p1rlv13069_1_2_pv phases=1 bus1=p1rlv13069.1.2 kv=0.2402 irradiance=1 Pmpp=18.759 %Pmpp=100 kVA=18.759 conn=wye %cutin=0.1 %cutout=0.1 Vmaxpu=1.2
New PVSystem.small_p1rlv31000_1_2_pv phases=1 bus1=p1rlv31000.1.2 kv=0.2402 irradiance=1 Pmpp=12.038 %Pmpp=100 kVA=12.038 conn=wye %cutin=0.1 %cutout=0.1 Vmaxpu=1.2
New PVSystem.small_p1rlv19823_1_2_pv phases=1 bus1=p1rlv19823.1.2 kv=0.2402 irradiance=1 Pmpp=9.527 %Pmpp=100 kVA=9.527 conn=wye %cutin=0.1 %cutout=0.1 Vmaxpu=1.2
New PVSystem.small_p1rlv19810_1_2_pv phases=1 bus1=p1rlv19810.1.2 kv=0.2402 irradiance=1 Pmpp=13.179 %Pmpp=100 kVA=13.179 conn=wye %cutin=0.1 %cutout=0.1 Vmaxpu=1.2
New PVSystem.small_p1rlv30804_1_2_pv phases=1 bus1=p1rlv30804.1.2 kv=0.2402 irradiance=1 Pmpp=34.789 %Pmpp=100 kVA=34.789 conn=wye %cutin=0.1 %cutout=0.1 Vmaxpu=1.2
New PVSystem.small_p1rlv13761_1_2_pv phases=1 bus1=p1rlv13761.1.2 kv=0.2402 irradiance=1 Pmpp=16.292 %Pmpp=100 kVA=16.292 conn=wye %cutin=0.1 %cutout=0.1 Vmaxpu=1.2
New PVSystem.small_p1rlv30763_1_2_pv phases=1 bus1=p1rlv30763.1.2 kv=0.2402 irradiance=1 Pmpp=42.35 %Pmpp=100 kVA=42.35 conn=wye %cutin=0.1 %cutout=0.1 Vmaxpu=1.2
New PVSystem.small_p1rlv30914_1_2_pv phases=1 bus1=p1rlv30914.1.2 kv=0.2402 irradiance=1 Pmpp=20.667 %Pmpp=100 kVA=20.667 conn=wye %cutin=0.1 %cutout=0.1 Vmaxpu=1.2
New PVSystem.small_p1rlv30726_1_2_pv phases=1 bus1=p1rlv30726.1.2 kv=0.2402 irradiance=1 Pmpp=6.684 %Pmpp=100 kVA=6.684 conn=wye %cutin=0.1 %cutout=0.1 Vmaxpu=1.2
New PVSystem.small_p1rlv28486_1_2_pv phases=1 bus1=p1rlv28486.1.2 kv=0.2402 irradiance=1 Pmpp=30.018 %Pmpp=100 kVA=30.018 conn=wye %cutin=0.1 %cutout=0.1 Vmaxpu=1.2
New PVSystem.small_p1rlv17215_1_2_pv phases=1 bus1=p1rlv17215.1.2 kv=0.2402 irradiance=1 Pmpp=26.929 %Pmpp=100 kVA=26.929 conn=wye %cutin=0.1 %cutout=0.1 Vmaxpu=1.2
New PVSystem.small_p1rlv17139_1_2_pv phases=1 bus1=p1rlv17139.1.2 kv=0.2402 irradiance=1 Pmpp=7.409 %Pmpp=100 kVA=7.409 conn=wye %cutin=0.1 %cutout=0.1 Vmaxpu=1.2
New PVSystem.small_p1rlv30932_1_2_pv phases=1 bus1=p1rlv30932.1.2 kv=0.2402 irradiance=1 Pmpp=6.212 %Pmpp=100 kVA=6.212 conn=wye %cutin=0.1 %cutout=0.1 Vmaxpu=1.2
New PVSystem.small_p1rlv37220_1_2_pv phases=1 bus1=p1rlv37220.1.2 kv=0.2402 irradiance=1 Pmpp=4.045 %Pmpp=100 kVA=4.045 conn=wye %cutin=0.1 %cutout=0.1 Vmaxpu=1.2
New PVSystem.small_p1rlv30967_1_2_pv phases=1 bus1=p1rlv30967.1.2 kv=0.2402 irradiance=1 Pmpp=19.682 %Pmpp=100 kVA=19.682 conn=wye %cutin=0.1 %cutout=0.1 Vmaxpu=1.2
New PVSystem.small_p1rlv13964_1_2_pv phases=1 bus1=p1rlv13964.1.2 kv=0.2402 irradiance=1 Pmpp=24.243 %Pmpp=100 kVA=24.243 conn=wye %cutin=0.1 %cutout=0.1 Vmaxpu=1.2
New PVSystem.small_p1rlv13958_1_2_pv phases=1 bus1=p1rlv13958.1.2 kv=0.2402 irradiance=1 Pmpp=35.961 %Pmpp=100 kVA=35.961 conn=wye %cutin=0.1 %cutout=0.1 Vmaxpu=1.2
New PVSystem.small_p1rlv37318_1_2_pv phases=1 bus1=p1rlv37318.1.2 kv=0.2402 irradiance=1 Pmpp=16.776 %Pmpp=100 kVA=16.776 conn=wye %cutin=0.1 %cutout=0.1 Vmaxpu=1.2
New PVSystem.small_p1rlv31124_1_2_pv phases=1 bus1=p1rlv31124.1.2 kv=0.2402 irradiance=1 Pmpp=18.285 %Pmpp=100 kVA=18.285 conn=wye %cutin=0.1 %cutout=0.1 Vmaxpu=1.2
New PVSystem.small_p1rlv12266_1_2_pv phases=1 bus1=p1rlv12266.1.2 kv=0.2402 irradiance=1 Pmpp=11.352 %Pmpp=100 kVA=11.352 conn=wye %cutin=0.1 %cutout=0.1 Vmaxpu=1.2
New PVSystem.small_p1rlv22002_1_2_pv phases=1 bus1=p1rlv22002.1.2 kv=0.2402 irradiance=1 Pmpp=6.958 %Pmpp=100 kVA=6.958 conn=wye %cutin=0.1 %cutout=0.1 Vmaxpu=1.2
New PVSystem.small_p1rlv30926_1_2_pv phases=1 bus1=p1rlv30926.1.2 kv=0.2402 irradiance=1 Pmpp=28.216 %Pmpp=100 kVA=28.216 conn=wye %cutin=0.1 %cutout=0.1 Vmaxpu=1.2
New PVSystem.small_p1rlv30885_1_2_pv phases=1 bus1=p1rlv30885.1.2 kv=0.2402 irradiance=1 Pmpp=4.045 %Pmpp=100 kVA=4.045 conn=wye %cutin=0.1 %cutout=0.1 Vmaxpu=1.2
New PVSystem.small_p1rlv29171_1_2_pv phases=1 bus1=p1rlv29171.1.2 kv=0.2402 irradiance=1 Pmpp=16.515 %Pmpp=100 kVA=16.515 conn=wye %cutin=0.1 %cutout=0.1 Vmaxpu=1.2
New PVSystem.small_p1rlv29118_1_2_pv phases=1 bus1=p1rlv29118.1.2 kv=0.2402 irradiance=1 Pmpp=6.212 %Pmpp=100 kVA=6.212 conn=wye %cutin=0.1 %cutout=0.1 Vmaxpu=1.2
New PVSystem.small_p1rlv34136_1_2_pv phases=1 bus1=p1rlv34136.1.2 kv=0.2402 irradiance=1 Pmpp=10.551 %Pmpp=100 kVA=10.551 conn=wye %cutin=0.1 %cutout=0.1 Vmaxpu=1.2
New PVSystem.small_p1rlv14413_1_2_pv phases=1 bus1=p1rlv14413.1.2 kv=0.2402 irradiance=1 Pmpp=12.735 %Pmpp=100 kVA=12.735 conn=wye %cutin=0.1 %cutout=0.1 Vmaxpu=1.2
New PVSystem.small_p1rlv30757_1_2_pv phases=1 bus1=p1rlv30757.1.2 kv=0.2402 irradiance=1 Pmpp=29.633 %Pmpp=100 kVA=29.633 conn=wye %cutin=0.1 %cutout=0.1 Vmaxpu=1.2
New PVSystem.small_p1rlv30954_1_2_pv phases=1 bus1=p1rlv30954.1.2 kv=0.2402 irradiance=1 Pmpp=13.93 %Pmpp=100 kVA=13.93 conn=wye %cutin=0.1 %cutout=0.1 Vmaxpu=1.2
New PVSystem.small_p1rlv26980_1_2_pv phases=1 bus1=p1rlv26980.1.2 kv=0.2402 irradiance=1 Pmpp=5.901 %Pmpp=100 kVA=5.901 conn=wye %cutin=0.1 %cutout=0.1 Vmaxpu=1.2
New PVSystem.small_p1rlv33016_1_2_pv phases=1 bus1=p1rlv33016.1.2 kv=0.2402 irradiance=1 Pmpp=18.759 %Pmpp=100 kVA=18.759 conn=wye %cutin=0.1 %cutout=0.1 Vmaxpu=1.2
New PVSystem.small_p1rlv16675_1_2_pv phases=1 bus1=p1rlv16675.1.2 kv=0.2402 irradiance=1 Pmpp=14.313 %Pmpp=100 kVA=14.313 conn=wye %cutin=0.1 %cutout=0.1 Vmaxpu=1.2
New PVSystem.small_p1rlv28244_1_2_pv phases=1 bus1=p1rlv28244.1.2 kv=0.2402 irradiance=1 Pmpp=11.403 %Pmpp=100 kVA=11.403 conn=wye %cutin=0.1 %cutout=0.1 Vmaxpu=1.2
New PVSystem.small_p1rlv13772_1_2_pv phases=1 bus1=p1rlv13772.1.2 kv=0.2402 irradiance=1 Pmpp=15.909 %Pmpp=100 kVA=15.909 conn=wye %cutin=0.1 %cutout=0.1 Vmaxpu=1.2
New PVSystem.small_p1rlv22048_1_2_pv phases=1 bus1=p1rlv22048.1.2 kv=0.2402 irradiance=1 Pmpp=7.713 %Pmpp=100 kVA=7.713 conn=wye %cutin=0.1 %cutout=0.1 Vmaxpu=1.2
New PVSystem.small_p1rlv12289_1_2_pv phases=1 bus1=p1rlv12289.1.2 kv=0.2402 irradiance=1 Pmpp=19.886 %Pmpp=100 kVA=19.886 conn=wye %cutin=0.1 %cutout=0.1 Vmaxpu=1.2
New PVSystem.small_p1rlv31176_1_2_pv phases=1 bus1=p1rlv31176.1.2 kv=0.2402 irradiance=1 Pmpp=6.527 %Pmpp=100 kVA=6.527 conn=wye %cutin=0.1 %cutout=0.1 Vmaxpu=1.2
New PVSystem.small_p1rlv30894_1_2_pv phases=1 bus1=p1rlv30894.1.2 kv=0.2402 irradiance=1 Pmpp=27.106 %Pmpp=100 kVA=27.106 conn=wye %cutin=0.1 %cutout=0.1 Vmaxpu=1.2
New PVSystem.small_p1rlv31190_1_2_pv phases=1 bus1=p1rlv31190.1.2 kv=0.2402 irradiance=1 Pmpp=17.873 %Pmpp=100 kVA=17.873 conn=wye %cutin=0.1 %cutout=0.1 Vmaxpu=1.2
New PVSystem.small_p1rlv18484_1_2_pv phases=1 bus1=p1rlv18484.1.2 kv=0.2402 irradiance=1 Pmpp=18.72 %Pmpp=100 kVA=18.72 conn=wye %cutin=0.1 %cutout=0.1 Vmaxpu=1.2
New PVSystem.small_p1rlv19764_1_2_pv phases=1 bus1=p1rlv19764.1.2 kv=0.2402 irradiance=1 Pmpp=9.527 %Pmpp=100 kVA=9.527 conn=wye %cutin=0.1 %cutout=0.1 Vmaxpu=1.2
New PVSystem.small_p1rlv13968_1_2_pv phases=1 bus1=p1rlv13968.1.2 kv=0.2402 irradiance=1 Pmpp=19.446 %Pmpp=100 kVA=19.446 conn=wye %cutin=0.1 %cutout=0.1 Vmaxpu=1.2
New PVSystem.small_p1rlv17163_1_2_pv phases=1 bus1=p1rlv17163.1.2 kv=0.2402 irradiance=1 Pmpp=18.246 %Pmpp=100 kVA=18.246 conn=wye %cutin=0.1 %cutout=0.1 Vmaxpu=1.2
New PVSystem.small_p1rlv10455_1_2_pv phases=1 bus1=p1rlv10455.1.2 kv=0.2402 irradiance=1 Pmpp=37.198 %Pmpp=100 kVA=37.198 conn=wye %cutin=0.1 %cutout=0.1 Vmaxpu=1.2
New PVSystem.small_p1rlv13732_1_2_pv phases=1 bus1=p1rlv13732.1.2 kv=0.2402 irradiance=1 Pmpp=22.12 %Pmpp=100 kVA=22.12 conn=wye %cutin=0.1 %cutout=0.1 Vmaxpu=1.2
New PVSystem.small_p1rlv34488_1_2_pv phases=1 bus1=p1rlv34488.1.2 kv=0.2402 irradiance=1 Pmpp=10.726 %Pmpp=100 kVA=10.726 conn=wye %cutin=0.1 %cutout=0.1 Vmaxpu=1.2
New PVSystem.small_p1rlv12363_1_2_pv phases=1 bus1=p1rlv12363.1.2 kv=0.2402 irradiance=1 Pmpp=16.845 %Pmpp=100 kVA=16.845 conn=wye %cutin=0.1 %cutout=0.1 Vmaxpu=1.2
New PVSystem.small_p1rlv19749_1_2_pv phases=1 bus1=p1rlv19749.1.2 kv=0.2402 irradiance=1 Pmpp=10.873 %Pmpp=100 kVA=10.873 conn=wye %cutin=0.1 %cutout=0.1 Vmaxpu=1.2
New PVSystem.small_p1rlv28264_1_2_pv phases=1 bus1=p1rlv28264.1.2 kv=0.2402 irradiance=1 Pmpp=15.411 %Pmpp=100 kVA=15.411 conn=wye %cutin=0.1 %cutout=0.1 Vmaxpu=1.2
New PVSystem.small_p1rlv33971_1_2_pv phases=1 bus1=p1rlv33971.1.2 kv=0.2402 irradiance=1 Pmpp=14.002 %Pmpp=100 kVA=14.002 conn=wye %cutin=0.1 %cutout=0.1 Vmaxpu=1.2
New PVSystem.small_p1rlv22005_1_2_pv phases=1 bus1=p1rlv22005.1.2 kv=0.2402 irradiance=1 Pmpp=37.666 %Pmpp=100 kVA=37.666 conn=wye %cutin=0.1 %cutout=0.1 Vmaxpu=1.2
New PVSystem.small_p1rlv15589_1_2_pv phases=1 bus1=p1rlv15589.1.2 kv=0.2402 irradiance=1 Pmpp=13.967 %Pmpp=100 kVA=13.967 conn=wye %cutin=0.1 %cutout=0.1 Vmaxpu=1.2
New PVSystem.small_p1rlv24869_1_2_pv phases=1 bus1=p1rlv24869.1.2 kv=0.2402 irradiance=1 Pmpp=4.153 %Pmpp=100 kVA=4.153 conn=wye %cutin=0.1 %cutout=0.1 Vmaxpu=1.2
New PVSystem.small_p1rlv30929_1_2_pv phases=1 bus1=p1rlv30929.1.2 kv=0.2402 irradiance=1 Pmpp=15.225 %Pmpp=100 kVA=15.225 conn=wye %cutin=0.1 %cutout=0.1 Vmaxpu=1.2
New PVSystem.small_p1rlv30911_1_2_pv phases=1 bus1=p1rlv30911.1.2 kv=0.2402 irradiance=1 Pmpp=7.495 %Pmpp=100 kVA=7.495 conn=wye %cutin=0.1 %cutout=0.1 Vmaxpu=1.2
New PVSystem.small_p1rlv28562_1_2_pv phases=1 bus1=p1rlv28562.1.2 kv=0.2402 irradiance=1 Pmpp=8.62 %Pmpp=100 kVA=8.62 conn=wye %cutin=0.1 %cutout=0.1 Vmaxpu=1.2
New PVSystem.small_p1rlv22053_1_2_pv phases=1 bus1=p1rlv22053.1.2 kv=0.2402 irradiance=1 Pmpp=22.477 %Pmpp=100 kVA=22.477 conn=wye %cutin=0.1 %cutout=0.1 Vmaxpu=1.2
New PVSystem.small_p1rlv13953_1_2_pv phases=1 bus1=p1rlv13953.1.2 kv=0.2402 irradiance=1 Pmpp=10.555 %Pmpp=100 kVA=10.555 conn=wye %cutin=0.1 %cutout=0.1 Vmaxpu=1.2
New PVSystem.small_p1rlv18441_1_2_pv phases=1 bus1=p1rlv18441.1.2 kv=0.2402 irradiance=1 Pmpp=28.277 %Pmpp=100 kVA=28.277 conn=wye %cutin=0.1 %cutout=0.1 Vmaxpu=1.2
New PVSystem.small_p1rlv30996_1_2_pv phases=1 bus1=p1rlv30996.1.2 kv=0.2402 irradiance=1 Pmpp=9.099 %Pmpp=100 kVA=9.099 conn=wye %cutin=0.1 %cutout=0.1 Vmaxpu=1.2
New PVSystem.small_p1rlv13753_1_2_pv phases=1 bus1=p1rlv13753.1.2 kv=0.2402 irradiance=1 Pmpp=15.495 %Pmpp=100 kVA=15.495 conn=wye %cutin=0.1 %cutout=0.1 Vmaxpu=1.2
New PVSystem.small_p1rlv36497_1_2_pv phases=1 bus1=p1rlv36497.1.2 kv=0.2402 irradiance=1 Pmpp=7.952 %Pmpp=100 kVA=7.952 conn=wye %cutin=0.1 %cutout=0.1 Vmaxpu=1.2
New PVSystem.small_p1rlv17147_1_2_pv phases=1 bus1=p1rlv17147.1.2 kv=0.2402 irradiance=1 Pmpp=6.911 %Pmpp=100 kVA=6.911 conn=wye %cutin=0.1 %cutout=0.1 Vmaxpu=1.2
New PVSystem.small_p1rlv31211_1_2_pv phases=1 bus1=p1rlv31211.1.2 kv=0.2402 irradiance=1 Pmpp=10.397 %Pmpp=100 kVA=10.397 conn=wye %cutin=0.1 %cutout=0.1 Vmaxpu=1.2
New PVSystem.small_p1rlv27051_1_2_pv phases=1 bus1=p1rlv27051.1.2 kv=0.2402 irradiance=1 Pmpp=3.989 %Pmpp=100 kVA=3.989 conn=wye %cutin=0.1 %cutout=0.1 Vmaxpu=1.2
New PVSystem.small_p1rlv10715_1_2_pv phases=1 bus1=p1rlv10715.1.2 kv=0.2402 irradiance=1 Pmpp=8.333 %Pmpp=100 kVA=8.333 conn=wye %cutin=0.1 %cutout=0.1 Vmaxpu=1.2
New PVSystem.small_p1rlv24891_1_2_pv phases=1 bus1=p1rlv24891.1.2 kv=0.2402 irradiance=1 Pmpp=14.203 %Pmpp=100 kVA=14.203 conn=wye %cutin=0.1 %cutout=0.1 Vmaxpu=1.2
New PVSystem.small_p1rlv13813_1_2_pv phases=1 bus1=p1rlv13813.1.2 kv=0.2402 irradiance=1 Pmpp=15.869 %Pmpp=100 kVA=15.869 conn=wye %cutin=0.1 %cutout=0.1 Vmaxpu=1.2
New PVSystem.small_p1rlv17194_1_2_pv phases=1 bus1=p1rlv17194.1.2 kv=0.2402 irradiance=1 Pmpp=4.175 %Pmpp=100 kVA=4.175 conn=wye %cutin=0.1 %cutout=0.1 Vmaxpu=1.2
New PVSystem.small_p1rlv13947_1_2_pv phases=1 bus1=p1rlv13947.1.2 kv=0.2402 irradiance=1 Pmpp=7.94 %Pmpp=100 kVA=7.94 conn=wye %cutin=0.1 %cutout=0.1 Vmaxpu=1.2
New PVSystem.small_p1rlv12230_1_2_pv phases=1 bus1=p1rlv12230.1.2 kv=0.2402 irradiance=1 Pmpp=19.484 %Pmpp=100 kVA=19.484 conn=wye %cutin=0.1 %cutout=0.1 Vmaxpu=1.2
New PVSystem.small_p1rlv34446_1_2_pv phases=1 bus1=p1rlv34446.1.2 kv=0.2402 irradiance=1 Pmpp=3.851 %Pmpp=100 kVA=3.851 conn=wye %cutin=0.1 %cutout=0.1 Vmaxpu=1.2
New PVSystem.small_p1rlv19719_1_2_pv phases=1 bus1=p1rlv19719.1.2 kv=0.2402 irradiance=1 Pmpp=28.025 %Pmpp=100 kVA=28.025 conn=wye %cutin=0.1 %cutout=0.1 Vmaxpu=1.2
New PVSystem.small_p1rlv37306_1_2_pv phases=1 bus1=p1rlv37306.1.2 kv=0.2402 irradiance=1 Pmpp=14.146 %Pmpp=100 kVA=14.146 conn=wye %cutin=0.1 %cutout=0.1 Vmaxpu=1.2
New PVSystem.small_p1rlv31120_1_2_pv phases=1 bus1=p1rlv31120.1.2 kv=0.2402 irradiance=1 Pmpp=14.223 %Pmpp=100 kVA=14.223 conn=wye %cutin=0.1 %cutout=0.1 Vmaxpu=1.2
New PVSystem.small_p1rlv19727_1_2_pv phases=1 bus1=p1rlv19727.1.2 kv=0.2402 irradiance=1 Pmpp=30.586 %Pmpp=100 kVA=30.586 conn=wye %cutin=0.1 %cutout=0.1 Vmaxpu=1.2
New PVSystem.small_p1rlv32044_1_2_pv phases=1 bus1=p1rlv32044.1.2 kv=0.2402 irradiance=1 Pmpp=14.01 %Pmpp=100 kVA=14.01 conn=wye %cutin=0.1 %cutout=0.1 Vmaxpu=1.2
New PVSystem.small_p1rlv32879_1_2_pv phases=1 bus1=p1rlv32879.1.2 kv=0.2402 irradiance=1 Pmpp=22.886 %Pmpp=100 kVA=22.886 conn=wye %cutin=0.1 %cutout=0.1 Vmaxpu=1.2
New PVSystem.small_p1rlv12411_1_2_pv phases=1 bus1=p1rlv12411.1.2 kv=0.2402 irradiance=1 Pmpp=3.753 %Pmpp=100 kVA=3.753 conn=wye %cutin=0.1 %cutout=0.1 Vmaxpu=1.2
New PVSystem.small_p1rlv27054_1_2_pv phases=1 bus1=p1rlv27054.1.2 kv=0.2402 irradiance=1 Pmpp=30.018 %Pmpp=100 kVA=30.018 conn=wye %cutin=0.1 %cutout=0.1 Vmaxpu=1.2
New PVSystem.small_p1rlv26926_1_2_pv phases=1 bus1=p1rlv26926.1.2 kv=0.2402 irradiance=1 Pmpp=25.136 %Pmpp=100 kVA=25.136 conn=wye %cutin=0.1 %cutout=0.1 Vmaxpu=1.2
New PVSystem.small_p1rlv17434_1_2_pv phases=1 bus1=p1rlv17434.1.2 kv=0.2402 irradiance=1 Pmpp=29.548 %Pmpp=100 kVA=29.548 conn=wye %cutin=0.1 %cutout=0.1 Vmaxpu=1.2
New PVSystem.small_p1rlv14291_1_2_pv phases=1 bus1=p1rlv14291.1.2 kv=0.2402 irradiance=1 Pmpp=19.849 %Pmpp=100 kVA=19.849 conn=wye %cutin=0.1 %cutout=0.1 Vmaxpu=1.2
New PVSystem.small_p1rlv13740_1_2_pv phases=1 bus1=p1rlv13740.1.2 kv=0.2402 irradiance=1 Pmpp=22.416 %Pmpp=100 kVA=22.416 conn=wye %cutin=0.1 %cutout=0.1 Vmaxpu=1.2
New PVSystem.small_p1rlv37293_1_2_pv phases=1 bus1=p1rlv37293.1.2 kv=0.2402 irradiance=1 Pmpp=16.568 %Pmpp=100 kVA=16.568 conn=wye %cutin=0.1 %cutout=0.1 Vmaxpu=1.2
New PVSystem.small_p1rlv30740_1_2_pv phases=1 bus1=p1rlv30740.1.2 kv=0.2402 irradiance=1 Pmpp=7.94 %Pmpp=100 kVA=7.94 conn=wye %cutin=0.1 %cutout=0.1 Vmaxpu=1.2
New PVSystem.small_p1rlv30834_1_2_pv phases=1 bus1=p1rlv30834.1.2 kv=0.2402 irradiance=1 Pmpp=23.715 %Pmpp=100 kVA=23.715 conn=wye %cutin=0.1 %cutout=0.1 Vmaxpu=1.2
New PVSystem.small_p1rlv31147_1_2_pv phases=1 bus1=p1rlv31147.1.2 kv=0.2402 irradiance=1 Pmpp=12.54 %Pmpp=100 kVA=12.54 conn=wye %cutin=0.1 %cutout=0.1 Vmaxpu=1.2
New PVSystem.small_p1rlv13766_1_2_pv phases=1 bus1=p1rlv13766.1.2 kv=0.2402 irradiance=1 Pmpp=16.134 %Pmpp=100 kVA=16.134 conn=wye %cutin=0.1 %cutout=0.1 Vmaxpu=1.2
New PVSystem.small_p1rlv36495_1_2_pv phases=1 bus1=p1rlv36495.1.2 kv=0.2402 irradiance=1 Pmpp=9.716 %Pmpp=100 kVA=9.716 conn=wye %cutin=0.1 %cutout=0.1 Vmaxpu=1.2
New PVSystem.small_p1rlv28939_1_2_pv phases=1 bus1=p1rlv28939.1.2 kv=0.2402 irradiance=1 Pmpp=24.195 %Pmpp=100 kVA=24.195 conn=wye %cutin=0.1 %cutout=0.1 Vmaxpu=1.2
New PVSystem.small_p1rlv36492_1_2_pv phases=1 bus1=p1rlv36492.1.2 kv=0.2402 irradiance=1 Pmpp=10.186 %Pmpp=100 kVA=10.186 conn=wye %cutin=0.1 %cutout=0.1 Vmaxpu=1.2
New PVSystem.small_p1rlv19707_1_2_pv phases=1 bus1=p1rlv19707.1.2 kv=0.2402 irradiance=1 Pmpp=9.651 %Pmpp=100 kVA=9.651 conn=wye %cutin=0.1 %cutout=0.1 Vmaxpu=1.2
New PVSystem.small_p1rlv19715_1_2_pv phases=1 bus1=p1rlv19715.1.2 kv=0.2402 irradiance=1 Pmpp=23.25 %Pmpp=100 kVA=23.25 conn=wye %cutin=0.1 %cutout=0.1 Vmaxpu=1.2
New PVSystem.small_p1rlv31159_1_2_pv phases=1 bus1=p1rlv31159.1.2 kv=0.2402 irradiance=1 Pmpp=11.922 %Pmpp=100 kVA=11.922 conn=wye %cutin=0.1 %cutout=0.1 Vmaxpu=1.2
New PVSystem.small_p1rlv19781_1_2_pv phases=1 bus1=p1rlv19781.1.2 kv=0.2402 irradiance=1 Pmpp=10.555 %Pmpp=100 kVA=10.555 conn=wye %cutin=0.1 %cutout=0.1 Vmaxpu=1.2
New PVSystem.small_p1rlv18508_1_2_pv phases=1 bus1=p1rlv18508.1.2 kv=0.2402 irradiance=1 Pmpp=10.064 %Pmpp=100 kVA=10.064 conn=wye %cutin=0.1 %cutout=0.1 Vmaxpu=1.2
New PVSystem.small_p1rlv31145_1_2_pv phases=1 bus1=p1rlv31145.1.2 kv=0.2402 irradiance=1 Pmpp=45.358 %Pmpp=100 kVA=45.358 conn=wye %cutin=0.1 %cutout=0.1 Vmaxpu=1.2
New PVSystem.small_p1rlv31013_1_2_pv phases=1 bus1=p1rlv31013.1.2 kv=0.2402 irradiance=1 Pmpp=14.409 %Pmpp=100 kVA=14.409 conn=wye %cutin=0.1 %cutout=0.1 Vmaxpu=1.2
New PVSystem.small_p1rlv17363_1_2_pv phases=1 bus1=p1rlv17363.1.2 kv=0.2402 irradiance=1 Pmpp=5.934 %Pmpp=100 kVA=5.934 conn=wye %cutin=0.1 %cutout=0.1 Vmaxpu=1.2
New PVSystem.small_p1rlv24887_1_2_pv phases=1 bus1=p1rlv24887.1.2 kv=0.2402 irradiance=1 Pmpp=4.791 %Pmpp=100 kVA=4.791 conn=wye %cutin=0.1 %cutout=0.1 Vmaxpu=1.2
New PVSystem.small_p1rlv31156_1_2_pv phases=1 bus1=p1rlv31156.1.2 kv=0.2402 irradiance=1 Pmpp=15.144 %Pmpp=100 kVA=15.144 conn=wye %cutin=0.1 %cutout=0.1 Vmaxpu=1.2
New PVSystem.small_p1rlv31212_1_2_pv phases=1 bus1=p1rlv31212.1.2 kv=0.2402 irradiance=1 Pmpp=20.891 %Pmpp=100 kVA=20.891 conn=wye %cutin=0.1 %cutout=0.1 Vmaxpu=1.2
New PVSystem.small_p1rlv12304_1_2_pv phases=1 bus1=p1rlv12304.1.2 kv=0.2402 irradiance=1 Pmpp=28.766 %Pmpp=100 kVA=28.766 conn=wye %cutin=0.1 %cutout=0.1 Vmaxpu=1.2
New PVSystem.small_p1rlv20816_1_2_pv phases=1 bus1=p1rlv20816.1.2 kv=0.2402 irradiance=1 Pmpp=15.143 %Pmpp=100 kVA=15.143 conn=wye %cutin=0.1 %cutout=0.1 Vmaxpu=1.2
New PVSystem.small_p1rlv34385_1_2_pv phases=1 bus1=p1rlv34385.1.2 kv=0.2402 irradiance=1 Pmpp=16.646 %Pmpp=100 kVA=16.646 conn=wye %cutin=0.1 %cutout=0.1 Vmaxpu=1.2
New PVSystem.small_p1rlv27002_1_2_pv phases=1 bus1=p1rlv27002.1.2 kv=0.2402 irradiance=1 Pmpp=38.266 %Pmpp=100 kVA=38.266 conn=wye %cutin=0.1 %cutout=0.1 Vmaxpu=1.2
New PVSystem.small_p1rlv13736_1_2_pv phases=1 bus1=p1rlv13736.1.2 kv=0.2402 irradiance=1 Pmpp=13.123 %Pmpp=100 kVA=13.123 conn=wye %cutin=0.1 %cutout=0.1 Vmaxpu=1.2
New PVSystem.small_p1rlv12332_1_2_pv phases=1 bus1=p1rlv12332.1.2 kv=0.2402 irradiance=1 Pmpp=16.776 %Pmpp=100 kVA=16.776 conn=wye %cutin=0.1 %cutout=0.1 Vmaxpu=1.2
New PVSystem.small_p1rlv31117_1_2_pv phases=1 bus1=p1rlv31117.1.2 kv=0.2402 irradiance=1 Pmpp=23.228 %Pmpp=100 kVA=23.228 conn=wye %cutin=0.1 %cutout=0.1 Vmaxpu=1.2
New PVSystem.small_p1rlv28400_1_2_pv phases=1 bus1=p1rlv28400.1.2 kv=0.2402 irradiance=1 Pmpp=16.163 %Pmpp=100 kVA=16.163 conn=wye %cutin=0.1 %cutout=0.1 Vmaxpu=1.2
New PVSystem.small_p1rlv28545_1_2_pv phases=1 bus1=p1rlv28545.1.2 kv=0.2402 irradiance=1 Pmpp=7.106 %Pmpp=100 kVA=7.106 conn=wye %cutin=0.1 %cutout=0.1 Vmaxpu=1.2
New PVSystem.small_p1rlv18391_1_2_pv phases=1 bus1=p1rlv18391.1.2 kv=0.2402 irradiance=1 Pmpp=18.777 %Pmpp=100 kVA=18.777 conn=wye %cutin=0.1 %cutout=0.1 Vmaxpu=1.2
New PVSystem.small_p1rlv28514_1_2_pv phases=1 bus1=p1rlv28514.1.2 kv=0.2402 irradiance=1 Pmpp=15.495 %Pmpp=100 kVA=15.495 conn=wye %cutin=0.1 %cutout=0.1 Vmaxpu=1.2
New PVSystem.small_p1rlv12421_1_2_pv phases=1 bus1=p1rlv12421.1.2 kv=0.2402 irradiance=1 Pmpp=13.46 %Pmpp=100 kVA=13.46 conn=wye %cutin=0.1 %cutout=0.1 Vmaxpu=1.2
New PVSystem.small_p1rlv27272_1_2_pv phases=1 bus1=p1rlv27272.1.2 kv=0.2402 irradiance=1 Pmpp=24.198 %Pmpp=100 kVA=24.198 conn=wye %cutin=0.1 %cutout=0.1 Vmaxpu=1.2
New PVSystem.small_p1rlv37304_1_2_pv phases=1 bus1=p1rlv37304.1.2 kv=0.2402 irradiance=1 Pmpp=18.246 %Pmpp=100 kVA=18.246 conn=wye %cutin=0.1 %cutout=0.1 Vmaxpu=1.2
New PVSystem.small_p1rlv20792_1_2_pv phases=1 bus1=p1rlv20792.1.2 kv=0.2402 irradiance=1 Pmpp=15.157 %Pmpp=100 kVA=15.157 conn=wye %cutin=0.1 %cutout=0.1 Vmaxpu=1.2
New PVSystem.small_p1rlv31210_1_2_pv phases=1 bus1=p1rlv31210.1.2 kv=0.2402 irradiance=1 Pmpp=18.759 %Pmpp=100 kVA=18.759 conn=wye %cutin=0.1 %cutout=0.1 Vmaxpu=1.2
New PVSystem.small_p1rlv25963_1_2_pv phases=1 bus1=p1rlv25963.1.2 kv=0.2402 irradiance=1 Pmpp=18.189 %Pmpp=100 kVA=18.189 conn=wye %cutin=0.1 %cutout=0.1 Vmaxpu=1.2
New PVSystem.small_p1rlv14404_1_2_pv phases=1 bus1=p1rlv14404.1.2 kv=0.2402 irradiance=1 Pmpp=16.163 %Pmpp=100 kVA=16.163 conn=wye %cutin=0.1 %cutout=0.1 Vmaxpu=1.2
New PVSystem.small_p1rlv13742_1_2_pv phases=1 bus1=p1rlv13742.1.2 kv=0.2402 irradiance=1 Pmpp=16.163 %Pmpp=100 kVA=16.163 conn=wye %cutin=0.1 %cutout=0.1 Vmaxpu=1.2
New PVSystem.small_p1rlv22064_1_2_pv phases=1 bus1=p1rlv22064.1.2 kv=0.2402 irradiance=1 Pmpp=26.929 %Pmpp=100 kVA=26.929 conn=wye %cutin=0.1 %cutout=0.1 Vmaxpu=1.2
New PVSystem.small_p1rlv31132_1_2_pv phases=1 bus1=p1rlv31132.1.2 kv=0.2402 irradiance=1 Pmpp=8.307 %Pmpp=100 kVA=8.307 conn=wye %cutin=0.1 %cutout=0.1 Vmaxpu=1.2
New PVSystem.small_p1rlv11668_1_2_pv phases=1 bus1=p1rlv11668.1.2 kv=0.2402 irradiance=1 Pmpp=8.618 %Pmpp=100 kVA=8.618 conn=wye %cutin=0.1 %cutout=0.1 Vmaxpu=1.2
New PVSystem.small_p1rlv17421_1_2_pv phases=1 bus1=p1rlv17421.1.2 kv=0.2402 irradiance=1 Pmpp=10.135 %Pmpp=100 kVA=10.135 conn=wye %cutin=0.1 %cutout=0.1 Vmaxpu=1.2
New PVSystem.small_p1rlv31192_1_2_pv phases=1 bus1=p1rlv31192.1.2 kv=0.2402 irradiance=1 Pmpp=26.929 %Pmpp=100 kVA=26.929 conn=wye %cutin=0.1 %cutout=0.1 Vmaxpu=1.2
New PVSystem.small_p1rlv30720_1_2_pv phases=1 bus1=p1rlv30720.1.2 kv=0.2402 irradiance=1 Pmpp=21.484 %Pmpp=100 kVA=21.484 conn=wye %cutin=0.1 %cutout=0.1 Vmaxpu=1.2
New PVSystem.small_p1rlv36487_1_2_pv phases=1 bus1=p1rlv36487.1.2 kv=0.2402 irradiance=1 Pmpp=15.5 %Pmpp=100 kVA=15.5 conn=wye %cutin=0.1 %cutout=0.1 Vmaxpu=1.2
New PVSystem.small_p1rlv16384_1_2_pv phases=1 bus1=p1rlv16384.1.2 kv=0.2402 irradiance=1 Pmpp=43.607 %Pmpp=100 kVA=43.607 conn=wye %cutin=0.1 %cutout=0.1 Vmaxpu=1.2
New PVSystem.small_p1rlv31169_1_2_pv phases=1 bus1=p1rlv31169.1.2 kv=0.2402 irradiance=1 Pmpp=24.243 %Pmpp=100 kVA=24.243 conn=wye %cutin=0.1 %cutout=0.1 Vmaxpu=1.2
New PVSystem.small_p1rlv18393_1_2_pv phases=1 bus1=p1rlv18393.1.2 kv=0.2402 irradiance=1 Pmpp=17.873 %Pmpp=100 kVA=17.873 conn=wye %cutin=0.1 %cutout=0.1 Vmaxpu=1.2
New PVSystem.small_p1rlv30867_1_2_pv phases=1 bus1=p1rlv30867.1.2 kv=0.2402 irradiance=1 Pmpp=11.622 %Pmpp=100 kVA=11.622 conn=wye %cutin=0.1 %cutout=0.1 Vmaxpu=1.2
New PVSystem.small_p1rlv28523_1_2_pv phases=1 bus1=p1rlv28523.1.2 kv=0.2402 irradiance=1 Pmpp=29.196 %Pmpp=100 kVA=29.196 conn=wye %cutin=0.1 %cutout=0.1 Vmaxpu=1.2
New PVSystem.small_p1rlv31209_1_2_pv phases=1 bus1=p1rlv31209.1.2 kv=0.2402 irradiance=1 Pmpp=9.173 %Pmpp=100 kVA=9.173 conn=wye %cutin=0.1 %cutout=0.1 Vmaxpu=1.2
New PVSystem.small_p1rlv34444_1_2_pv phases=1 bus1=p1rlv34444.1.2 kv=0.2402 irradiance=1 Pmpp=12.211 %Pmpp=100 kVA=12.211 conn=wye %cutin=0.1 %cutout=0.1 Vmaxpu=1.2
New PVSystem.small_p1rlv18472_1_2_pv phases=1 bus1=p1rlv18472.1.2 kv=0.2402 irradiance=1 Pmpp=5.612 %Pmpp=100 kVA=5.612 conn=wye %cutin=0.1 %cutout=0.1 Vmaxpu=1.2
New PVSystem.small_p1rlv19809_1_2_pv phases=1 bus1=p1rlv19809.1.2 kv=0.2402 irradiance=1 Pmpp=2.806 %Pmpp=100 kVA=2.806 conn=wye %cutin=0.1 %cutout=0.1 Vmaxpu=1.2
New PVSystem.small_p1rlv13757_1_2_pv phases=1 bus1=p1rlv13757.1.2 kv=0.2402 irradiance=1 Pmpp=4.433 %Pmpp=100 kVA=4.433 conn=wye %cutin=0.1 %cutout=0.1 Vmaxpu=1.2
New PVSystem.small_p1rlv30919_1_2_pv phases=1 bus1=p1rlv30919.1.2 kv=0.2402 irradiance=1 Pmpp=18.285 %Pmpp=100 kVA=18.285 conn=wye %cutin=0.1 %cutout=0.1 Vmaxpu=1.2
New PVSystem.small_p1rlv10755_1_2_pv phases=1 bus1=p1rlv10755.1.2 kv=0.2402 irradiance=1 Pmpp=32.243 %Pmpp=100 kVA=32.243 conn=wye %cutin=0.1 %cutout=0.1 Vmaxpu=1.2
New PVSystem.small_p1rlv22021_1_2_pv phases=1 bus1=p1rlv22021.1.2 kv=0.2402 irradiance=1 Pmpp=7.487 %Pmpp=100 kVA=7.487 conn=wye %cutin=0.1 %cutout=0.1 Vmaxpu=1.2
New PVSystem.small_p1rlv16378_1_2_pv phases=1 bus1=p1rlv16378.1.2 kv=0.2402 irradiance=1 Pmpp=5.877 %Pmpp=100 kVA=5.877 conn=wye %cutin=0.1 %cutout=0.1 Vmaxpu=1.2
New PVSystem.small_p1rlv13759_1_2_pv phases=1 bus1=p1rlv13759.1.2 kv=0.2402 irradiance=1 Pmpp=12.056 %Pmpp=100 kVA=12.056 conn=wye %cutin=0.1 %cutout=0.1 Vmaxpu=1.2
New PVSystem.small_p1rlv20348_1_2_pv phases=1 bus1=p1rlv20348.1.2 kv=0.2402 irradiance=1 Pmpp=13.233 %Pmpp=100 kVA=13.233 conn=wye %cutin=0.1 %cutout=0.1 Vmaxpu=1.2
New PVSystem.small_p1rlv31118_1_2_pv phases=1 bus1=p1rlv31118.1.2 kv=0.2402 irradiance=1 Pmpp=10.444 %Pmpp=100 kVA=10.444 conn=wye %cutin=0.1 %cutout=0.1 Vmaxpu=1.2
New PVSystem.small_p1rlv30891_1_2_pv phases=1 bus1=p1rlv30891.1.2 kv=0.2402 irradiance=1 Pmpp=18.556 %Pmpp=100 kVA=18.556 conn=wye %cutin=0.1 %cutout=0.1 Vmaxpu=1.2
New PVSystem.small_p1rlv30828_1_2_pv phases=1 bus1=p1rlv30828.1.2 kv=0.2402 irradiance=1 Pmpp=9.269 %Pmpp=100 kVA=9.269 conn=wye %cutin=0.1 %cutout=0.1 Vmaxpu=1.2
New PVSystem.small_p1rlv30881_1_2_pv phases=1 bus1=p1rlv30881.1.2 kv=0.2402 irradiance=1 Pmpp=33.392 %Pmpp=100 kVA=33.392 conn=wye %cutin=0.1 %cutout=0.1 Vmaxpu=1.2
New PVSystem.small_p1rlv19708_1_2_pv phases=1 bus1=p1rlv19708.1.2 kv=0.2402 irradiance=1 Pmpp=7.968 %Pmpp=100 kVA=7.968 conn=wye %cutin=0.1 %cutout=0.1 Vmaxpu=1.2
New PVSystem.small_p1rlv17214_1_2_pv phases=1 bus1=p1rlv17214.1.2 kv=0.2402 irradiance=1 Pmpp=2.843 %Pmpp=100 kVA=2.843 conn=wye %cutin=0.1 %cutout=0.1 Vmaxpu=1.2
New PVSystem.small_p1rlv30735_1_2_pv phases=1 bus1=p1rlv30735.1.2 kv=0.2402 irradiance=1 Pmpp=27.106 %Pmpp=100 kVA=27.106 conn=wye %cutin=0.1 %cutout=0.1 Vmaxpu=1.2
New PVSystem.small_p1rlv30729_1_2_pv phases=1 bus1=p1rlv30729.1.2 kv=0.2402 irradiance=1 Pmpp=2.168 %Pmpp=100 kVA=2.168 conn=wye %cutin=0.1 %cutout=0.1 Vmaxpu=1.2
New PVSystem.small_p1rlv28575_1_2_pv phases=1 bus1=p1rlv28575.1.2 kv=0.2402 irradiance=1 Pmpp=6.212 %Pmpp=100 kVA=6.212 conn=wye %cutin=0.1 %cutout=0.1 Vmaxpu=1.2
New PVSystem.small_p1rlv31201_1_2_pv phases=1 bus1=p1rlv31201.1.2 kv=0.2402 irradiance=1 Pmpp=28.934 %Pmpp=100 kVA=28.934 conn=wye %cutin=0.1 %cutout=0.1 Vmaxpu=1.2
New PVSystem.small_p1rlv30854_1_2_pv phases=1 bus1=p1rlv30854.1.2 kv=0.2402 irradiance=1 Pmpp=4.374 %Pmpp=100 kVA=4.374 conn=wye %cutin=0.1 %cutout=0.1 Vmaxpu=1.2
New PVSystem.small_p1rlv19758_1_2_pv phases=1 bus1=p1rlv19758.1.2 kv=0.2402 irradiance=1 Pmpp=26.044 %Pmpp=100 kVA=26.044 conn=wye %cutin=0.1 %cutout=0.1 Vmaxpu=1.2
New PVSystem.small_p1rlv20757_1_2_pv phases=1 bus1=p1rlv20757.1.2 kv=0.2402 irradiance=1 Pmpp=17.659 %Pmpp=100 kVA=17.659 conn=wye %cutin=0.1 %cutout=0.1 Vmaxpu=1.2
New PVSystem.small_p1rlv13735_1_2_pv phases=1 bus1=p1rlv13735.1.2 kv=0.2402 irradiance=1 Pmpp=26.532 %Pmpp=100 kVA=26.532 conn=wye %cutin=0.1 %cutout=0.1 Vmaxpu=1.2
New PVSystem.small_p1rlv31139_1_2_pv phases=1 bus1=p1rlv31139.1.2 kv=0.2402 irradiance=1 Pmpp=18.582 %Pmpp=100 kVA=18.582 conn=wye %cutin=0.1 %cutout=0.1 Vmaxpu=1.2
New PVSystem.small_p1rlv28248_1_2_pv phases=1 bus1=p1rlv28248.1.2 kv=0.2402 irradiance=1 Pmpp=5.612 %Pmpp=100 kVA=5.612 conn=wye %cutin=0.1 %cutout=0.1 Vmaxpu=1.2
New PVSystem.small_p1rlv34367_1_2_pv phases=1 bus1=p1rlv34367.1.2 kv=0.2402 irradiance=1 Pmpp=40.949 %Pmpp=100 kVA=40.949 conn=wye %cutin=0.1 %cutout=0.1 Vmaxpu=1.2
New PVSystem.small_p1rlv31119_1_2_pv phases=1 bus1=p1rlv31119.1.2 kv=0.2402 irradiance=1 Pmpp=25.136 %Pmpp=100 kVA=25.136 conn=wye %cutin=0.1 %cutout=0.1 Vmaxpu=1.2
New PVSystem.small_p1rlv31175_1_2_pv phases=1 bus1=p1rlv31175.1.2 kv=0.2402 irradiance=1 Pmpp=22.389 %Pmpp=100 kVA=22.389 conn=wye %cutin=0.1 %cutout=0.1 Vmaxpu=1.2
New PVSystem.small_p1rlv18503_1_2_pv phases=1 bus1=p1rlv18503.1.2 kv=0.2402 irradiance=1 Pmpp=23.967 %Pmpp=100 kVA=23.967 conn=wye %cutin=0.1 %cutout=0.1 Vmaxpu=1.2
New PVSystem.small_p1rlv11672_1_2_pv phases=1 bus1=p1rlv11672.1.2 kv=0.2402 irradiance=1 Pmpp=18.826 %Pmpp=100 kVA=18.826 conn=wye %cutin=0.1 %cutout=0.1 Vmaxpu=1.2
New PVSystem.small_p1rlv31010_1_2_pv phases=1 bus1=p1rlv31010.1.2 kv=0.2402 irradiance=1 Pmpp=24.198 %Pmpp=100 kVA=24.198 conn=wye %cutin=0.1 %cutout=0.1 Vmaxpu=1.2
New PVSystem.small_p1rlv22060_1_2_pv phases=1 bus1=p1rlv22060.1.2 kv=0.2402 irradiance=1 Pmpp=10.564 %Pmpp=100 kVA=10.564 conn=wye %cutin=0.1 %cutout=0.1 Vmaxpu=1.2
New PVSystem.small_p1rlv10466_1_2_pv phases=1 bus1=p1rlv10466.1.2 kv=0.2402 irradiance=1 Pmpp=14.532 %Pmpp=100 kVA=14.532 conn=wye %cutin=0.1 %cutout=0.1 Vmaxpu=1.2
New PVSystem.small_p1rlv30712_1_2_pv phases=1 bus1=p1rlv30712.1.2 kv=0.2402 irradiance=1 Pmpp=24.571 %Pmpp=100 kVA=24.571 conn=wye %cutin=0.1 %cutout=0.1 Vmaxpu=1.2
New PVSystem.small_p1rlv22035_1_2_pv phases=1 bus1=p1rlv22035.1.2 kv=0.2402 irradiance=1 Pmpp=13.445 %Pmpp=100 kVA=13.445 conn=wye %cutin=0.1 %cutout=0.1 Vmaxpu=1.2
New PVSystem.small_p1rlv16687_1_2_pv phases=1 bus1=p1rlv16687.1.2 kv=0.2402 irradiance=1 Pmpp=15.192 %Pmpp=100 kVA=15.192 conn=wye %cutin=0.1 %cutout=0.1 Vmaxpu=1.2
New PVSystem.small_p1rlv16931_1_2_pv phases=1 bus1=p1rlv16931.1.2 kv=0.2402 irradiance=1 Pmpp=24.584 %Pmpp=100 kVA=24.584 conn=wye %cutin=0.1 %cutout=0.1 Vmaxpu=1.2
New PVSystem.small_p1rlv10696_1_2_pv phases=1 bus1=p1rlv10696.1.2 kv=0.2402 irradiance=1 Pmpp=9.716 %Pmpp=100 kVA=9.716 conn=wye %cutin=0.1 %cutout=0.1 Vmaxpu=1.2
New PVSystem.small_p1rlv14392_1_2_pv phases=1 bus1=p1rlv14392.1.2 kv=0.2402 irradiance=1 Pmpp=17.925 %Pmpp=100 kVA=17.925 conn=wye %cutin=0.1 %cutout=0.1 Vmaxpu=1.2
New PVSystem.small_p1rlv30754_1_2_pv phases=1 bus1=p1rlv30754.1.2 kv=0.2402 irradiance=1 Pmpp=12.056 %Pmpp=100 kVA=12.056 conn=wye %cutin=0.1 %cutout=0.1 Vmaxpu=1.2
New PVSystem.small_p1rlv12305_1_2_pv phases=1 bus1=p1rlv12305.1.2 kv=0.2402 irradiance=1 Pmpp=60.507 %Pmpp=100 kVA=60.507 conn=wye %cutin=0.1 %cutout=0.1 Vmaxpu=1.2
New PVSystem.small_p1rlv19783_1_2_pv phases=1 bus1=p1rlv19783.1.2 kv=0.2402 irradiance=1 Pmpp=28.479 %Pmpp=100 kVA=28.479 conn=wye %cutin=0.1 %cutout=0.1 Vmaxpu=1.2
New PVSystem.small_p1rlv11612_1_2_pv phases=1 bus1=p1rlv11612.1.2 kv=0.2402 irradiance=1 Pmpp=12.083 %Pmpp=100 kVA=12.083 conn=wye %cutin=0.1 %cutout=0.1 Vmaxpu=1.2
New PVSystem.small_p1rlv32985_1_2_pv phases=1 bus1=p1rlv32985.1.2 kv=0.2402 irradiance=1 Pmpp=7.326 %Pmpp=100 kVA=7.326 conn=wye %cutin=0.1 %cutout=0.1 Vmaxpu=1.2
New PVSystem.small_p1rlv13747_1_2_pv phases=1 bus1=p1rlv13747.1.2 kv=0.2402 irradiance=1 Pmpp=6.948 %Pmpp=100 kVA=6.948 conn=wye %cutin=0.1 %cutout=0.1 Vmaxpu=1.2
New PVSystem.small_p1rlv31194_1_2_3_pv phases=3 bus1=p1rlv31194.1.2.3 kv=0.48 irradiance=1 Pmpp=64.589 %Pmpp=100 kVA=64.589 conn=wye %cutin=0.1 %cutout=0.1 Vmaxpu=1.2
New PVSystem.small_p1rlv34445_1_2_pv phases=1 bus1=p1rlv34445.1.2 kv=0.2402 irradiance=1 Pmpp=29.599 %Pmpp=100 kVA=29.599 conn=wye %cutin=0.1 %cutout=0.1 Vmaxpu=1.2
New PVSystem.small_p1rlv30767_1_2_pv phases=1 bus1=p1rlv30767.1.2 kv=0.2402 irradiance=1 Pmpp=26.239 %Pmpp=100 kVA=26.239 conn=wye %cutin=0.1 %cutout=0.1 Vmaxpu=1.2
New PVSystem.small_p1rlv19721_1_2_pv phases=1 bus1=p1rlv19721.1.2 kv=0.2402 irradiance=1 Pmpp=26.896 %Pmpp=100 kVA=26.896 conn=wye %cutin=0.1 %cutout=0.1 Vmaxpu=1.2
New PVSystem.small_p1rlv22050_1_2_pv phases=1 bus1=p1rlv22050.1.2 kv=0.2402 irradiance=1 Pmpp=12.844 %Pmpp=100 kVA=12.844 conn=wye %cutin=0.1 %cutout=0.1 Vmaxpu=1.2
New PVSystem.small_p1rlv12471_1_2_pv phases=1 bus1=p1rlv12471.1.2 kv=0.2402 irradiance=1 Pmpp=13.905 %Pmpp=100 kVA=13.905 conn=wye %cutin=0.1 %cutout=0.1 Vmaxpu=1.2
New PVSystem.small_p1rlv15630_1_2_pv phases=1 bus1=p1rlv15630.1.2 kv=0.2402 irradiance=1 Pmpp=26.104 %Pmpp=100 kVA=26.104 conn=wye %cutin=0.1 %cutout=0.1 Vmaxpu=1.2
New PVSystem.small_p1rlv36484_1_2_pv phases=1 bus1=p1rlv36484.1.2 kv=0.2402 irradiance=1 Pmpp=29.255 %Pmpp=100 kVA=29.255 conn=wye %cutin=0.1 %cutout=0.1 Vmaxpu=1.2
New PVSystem.small_p1rlv24884_1_2_pv phases=1 bus1=p1rlv24884.1.2 kv=0.2402 irradiance=1 Pmpp=24.584 %Pmpp=100 kVA=24.584 conn=wye %cutin=0.1 %cutout=0.1 Vmaxpu=1.2
New PVSystem.small_p1rlv15600_1_2_pv phases=1 bus1=p1rlv15600.1.2 kv=0.2402 irradiance=1 Pmpp=28.266 %Pmpp=100 kVA=28.266 conn=wye %cutin=0.1 %cutout=0.1 Vmaxpu=1.2
New PVSystem.small_p1rlv33017_1_2_pv phases=1 bus1=p1rlv33017.1.2 kv=0.2402 irradiance=1 Pmpp=18.826 %Pmpp=100 kVA=18.826 conn=wye %cutin=0.1 %cutout=0.1 Vmaxpu=1.2
New PVSystem.small_p1rlv17138_1_2_pv phases=1 bus1=p1rlv17138.1.2 kv=0.2402 irradiance=1 Pmpp=28.025 %Pmpp=100 kVA=28.025 conn=wye %cutin=0.1 %cutout=0.1 Vmaxpu=1.2
New PVSystem.small_p1rlv28207_1_2_pv phases=1 bus1=p1rlv28207.1.2 kv=0.2402 irradiance=1 Pmpp=13.705 %Pmpp=100 kVA=13.705 conn=wye %cutin=0.1 %cutout=0.1 Vmaxpu=1.2
New PVSystem.small_p1rlv19748_1_2_pv phases=1 bus1=p1rlv19748.1.2 kv=0.2402 irradiance=1 Pmpp=13.663 %Pmpp=100 kVA=13.663 conn=wye %cutin=0.1 %cutout=0.1 Vmaxpu=1.2
New PVSystem.small_p1rlv30970_1_2_pv phases=1 bus1=p1rlv30970.1.2 kv=0.2402 irradiance=1 Pmpp=4.791 %Pmpp=100 kVA=4.791 conn=wye %cutin=0.1 %cutout=0.1 Vmaxpu=1.2
New PVSystem.small_p1rlv34379_1_2_pv phases=1 bus1=p1rlv34379.1.2 kv=0.2402 irradiance=1 Pmpp=3.753 %Pmpp=100 kVA=3.753 conn=wye %cutin=0.1 %cutout=0.1 Vmaxpu=1.2
New PVSystem.small_p1rlv31004_1_2_pv phases=1 bus1=p1rlv31004.1.2 kv=0.2402 irradiance=1 Pmpp=22.674 %Pmpp=100 kVA=22.674 conn=wye %cutin=0.1 %cutout=0.1 Vmaxpu=1.2
New PVSystem.small_p1rlv30759_1_2_pv phases=1 bus1=p1rlv30759.1.2 kv=0.2402 irradiance=1 Pmpp=12.072 %Pmpp=100 kVA=12.072 conn=wye %cutin=0.1 %cutout=0.1 Vmaxpu=1.2
New PVSystem.small_p1rlv15621_1_2_pv phases=1 bus1=p1rlv15621.1.2 kv=0.2402 irradiance=1 Pmpp=9.244 %Pmpp=100 kVA=9.244 conn=wye %cutin=0.1 %cutout=0.1 Vmaxpu=1.2
New PVSystem.small_p1rlv19709_1_2_pv phases=1 bus1=p1rlv19709.1.2 kv=0.2402 irradiance=1 Pmpp=22.72 %Pmpp=100 kVA=22.72 conn=wye %cutin=0.1 %cutout=0.1 Vmaxpu=1.2
New PVSystem.small_p1rlv19791_1_2_pv phases=1 bus1=p1rlv19791.1.2 kv=0.2402 irradiance=1 Pmpp=24.337 %Pmpp=100 kVA=24.337 conn=wye %cutin=0.1 %cutout=0.1 Vmaxpu=1.2
New PVSystem.small_p1rlv29112_1_2_pv phases=1 bus1=p1rlv29112.1.2 kv=0.2402 irradiance=1 Pmpp=12.041 %Pmpp=100 kVA=12.041 conn=wye %cutin=0.1 %cutout=0.1 Vmaxpu=1.2
New PVSystem.small_p1rlv13767_1_2_pv phases=1 bus1=p1rlv13767.1.2 kv=0.2402 irradiance=1 Pmpp=7.324 %Pmpp=100 kVA=7.324 conn=wye %cutin=0.1 %cutout=0.1 Vmaxpu=1.2
New PVSystem.small_p1rlv17213_1_2_pv phases=1 bus1=p1rlv17213.1.2 kv=0.2402 irradiance=1 Pmpp=9.244 %Pmpp=100 kVA=9.244 conn=wye %cutin=0.1 %cutout=0.1 Vmaxpu=1.2
New PVSystem.small_p1rlv24895_1_2_pv phases=1 bus1=p1rlv24895.1.2 kv=0.2402 irradiance=1 Pmpp=4.844 %Pmpp=100 kVA=4.844 conn=wye %cutin=0.1 %cutout=0.1 Vmaxpu=1.2
New PVSystem.small_p1rlv12342_1_2_pv phases=1 bus1=p1rlv12342.1.2 kv=0.2402 irradiance=1 Pmpp=9.809 %Pmpp=100 kVA=9.809 conn=wye %cutin=0.1 %cutout=0.1 Vmaxpu=1.2
New PVSystem.small_p1rlv31128_1_2_pv phases=1 bus1=p1rlv31128.1.2 kv=0.2402 irradiance=1 Pmpp=12.433 %Pmpp=100 kVA=12.433 conn=wye %cutin=0.1 %cutout=0.1 Vmaxpu=1.2
New PVSystem.small_p1rlv31148_1_2_pv phases=1 bus1=p1rlv31148.1.2 kv=0.2402 irradiance=1 Pmpp=9.317 %Pmpp=100 kVA=9.317 conn=wye %cutin=0.1 %cutout=0.1 Vmaxpu=1.2
New PVSystem.small_p1rlv19794_1_2_pv phases=1 bus1=p1rlv19794.1.2 kv=0.2402 irradiance=1 Pmpp=7.834 %Pmpp=100 kVA=7.834 conn=wye %cutin=0.1 %cutout=0.1 Vmaxpu=1.2
New PVSystem.small_p1rlv30727_1_2_pv phases=1 bus1=p1rlv30727.1.2 kv=0.2402 irradiance=1 Pmpp=9.563 %Pmpp=100 kVA=9.563 conn=wye %cutin=0.1 %cutout=0.1 Vmaxpu=1.2
New PVSystem.small_p1rlv27068_1_2_pv phases=1 bus1=p1rlv27068.1.2 kv=0.2402 irradiance=1 Pmpp=21.688 %Pmpp=100 kVA=21.688 conn=wye %cutin=0.1 %cutout=0.1 Vmaxpu=1.2
New PVSystem.small_p1rlv19807_1_2_pv phases=1 bus1=p1rlv19807.1.2 kv=0.2402 irradiance=1 Pmpp=13.967 %Pmpp=100 kVA=13.967 conn=wye %cutin=0.1 %cutout=0.1 Vmaxpu=1.2
New PVSystem.small_p1rlv30865_1_2_pv phases=1 bus1=p1rlv30865.1.2 kv=0.2402 irradiance=1 Pmpp=13.909 %Pmpp=100 kVA=13.909 conn=wye %cutin=0.1 %cutout=0.1 Vmaxpu=1.2
New PVSystem.small_p1rlv24868_1_2_pv phases=1 bus1=p1rlv24868.1.2 kv=0.2402 irradiance=1 Pmpp=12.326 %Pmpp=100 kVA=12.326 conn=wye %cutin=0.1 %cutout=0.1 Vmaxpu=1.2
New PVSystem.small_p1rlv12366_1_2_pv phases=1 bus1=p1rlv12366.1.2 kv=0.2402 irradiance=1 Pmpp=14.345 %Pmpp=100 kVA=14.345 conn=wye %cutin=0.1 %cutout=0.1 Vmaxpu=1.2
New PVSystem.small_p1rlv11688_1_2_pv phases=1 bus1=p1rlv11688.1.2 kv=0.2402 irradiance=1 Pmpp=26.257 %Pmpp=100 kVA=26.257 conn=wye %cutin=0.1 %cutout=0.1 Vmaxpu=1.2
New PVSystem.small_p1rlv34368_1_2_pv phases=1 bus1=p1rlv34368.1.2 kv=0.2402 irradiance=1 Pmpp=23.162 %Pmpp=100 kVA=23.162 conn=wye %cutin=0.1 %cutout=0.1 Vmaxpu=1.2
New PVSystem.small_p1rlv16415_1_2_pv phases=1 bus1=p1rlv16415.1.2 kv=0.2402 irradiance=1 Pmpp=88.189 %Pmpp=100 kVA=88.189 conn=wye %cutin=0.1 %cutout=0.1 Vmaxpu=1.2
New PVSystem.small_p1rlv33084_1_2_pv phases=1 bus1=p1rlv33084.1.2 kv=0.2402 irradiance=1 Pmpp=10.628 %Pmpp=100 kVA=10.628 conn=wye %cutin=0.1 %cutout=0.1 Vmaxpu=1.2
New PVSystem.small_p1rlv22056_1_2_pv phases=1 bus1=p1rlv22056.1.2 kv=0.2402 irradiance=1 Pmpp=26.911 %Pmpp=100 kVA=26.911 conn=wye %cutin=0.1 %cutout=0.1 Vmaxpu=1.2
New PVSystem.small_p1rlv34469_1_2_pv phases=1 bus1=p1rlv34469.1.2 kv=0.2402 irradiance=1 Pmpp=9.48 %Pmpp=100 kVA=9.48 conn=wye %cutin=0.1 %cutout=0.1 Vmaxpu=1.2
New PVSystem.small_p1rlv33982_1_2_pv phases=1 bus1=p1rlv33982.1.2 kv=0.2402 irradiance=1 Pmpp=30.533 %Pmpp=100 kVA=30.533 conn=wye %cutin=0.1 %cutout=0.1 Vmaxpu=1.2
New PVSystem.small_p1rlv24867_1_2_pv phases=1 bus1=p1rlv24867.1.2 kv=0.2402 irradiance=1 Pmpp=3.411 %Pmpp=100 kVA=3.411 conn=wye %cutin=0.1 %cutout=0.1 Vmaxpu=1.2
New PVSystem.small_p1rlv30880_1_2_pv phases=1 bus1=p1rlv30880.1.2 kv=0.2402 irradiance=1 Pmpp=11.931 %Pmpp=100 kVA=11.931 conn=wye %cutin=0.1 %cutout=0.1 Vmaxpu=1.2
New PVSystem.small_p1rlv20798_1_2_pv phases=1 bus1=p1rlv20798.1.2 kv=0.2402 irradiance=1 Pmpp=13.23 %Pmpp=100 kVA=13.23 conn=wye %cutin=0.1 %cutout=0.1 Vmaxpu=1.2
New PVSystem.small_p1rlv11678_1_2_pv phases=1 bus1=p1rlv11678.1.2 kv=0.2402 irradiance=1 Pmpp=18.372 %Pmpp=100 kVA=18.372 conn=wye %cutin=0.1 %cutout=0.1 Vmaxpu=1.2
New PVSystem.small_p1rlv13729_1_2_pv phases=1 bus1=p1rlv13729.1.2 kv=0.2402 irradiance=1 Pmpp=27.295 %Pmpp=100 kVA=27.295 conn=wye %cutin=0.1 %cutout=0.1 Vmaxpu=1.2
New PVSystem.small_p1rlv13070_1_2_pv phases=1 bus1=p1rlv13070.1.2 kv=0.2402 irradiance=1 Pmpp=9.47 %Pmpp=100 kVA=9.47 conn=wye %cutin=0.1 %cutout=0.1 Vmaxpu=1.2
New PVSystem.small_p1rlv19772_1_2_pv phases=1 bus1=p1rlv19772.1.2 kv=0.2402 irradiance=1 Pmpp=9.391 %Pmpp=100 kVA=9.391 conn=wye %cutin=0.1 %cutout=0.1 Vmaxpu=1.2
New PVSystem.small_p1rlv15620_1_2_pv phases=1 bus1=p1rlv15620.1.2 kv=0.2402 irradiance=1 Pmpp=25.257 %Pmpp=100 kVA=25.257 conn=wye %cutin=0.1 %cutout=0.1 Vmaxpu=1.2
New PVSystem.small_p1rlv30765_1_2_pv phases=1 bus1=p1rlv30765.1.2 kv=0.2402 irradiance=1 Pmpp=5.033 %Pmpp=100 kVA=5.033 conn=wye %cutin=0.1 %cutout=0.1 Vmaxpu=1.2
New PVSystem.small_p1rlv31178_1_2_pv phases=1 bus1=p1rlv31178.1.2 kv=0.2402 irradiance=1 Pmpp=16.594 %Pmpp=100 kVA=16.594 conn=wye %cutin=0.1 %cutout=0.1 Vmaxpu=1.2
New PVSystem.small_p1rlv30826_1_2_pv phases=1 bus1=p1rlv30826.1.2 kv=0.2402 irradiance=1 Pmpp=20.749 %Pmpp=100 kVA=20.749 conn=wye %cutin=0.1 %cutout=0.1 Vmaxpu=1.2
New PVSystem.small_p1rlv12993_1_2_pv phases=1 bus1=p1rlv12993.1.2 kv=0.2402 irradiance=1 Pmpp=29.123 %Pmpp=100 kVA=29.123 conn=wye %cutin=0.1 %cutout=0.1 Vmaxpu=1.2
New PVSystem.small_p1rlv31137_1_2_pv phases=1 bus1=p1rlv31137.1.2 kv=0.2402 irradiance=1 Pmpp=57.661 %Pmpp=100 kVA=57.661 conn=wye %cutin=0.1 %cutout=0.1 Vmaxpu=1.2
New PVSystem.small_p1rlv19745_1_2_pv phases=1 bus1=p1rlv19745.1.2 kv=0.2402 irradiance=1 Pmpp=23.25 %Pmpp=100 kVA=23.25 conn=wye %cutin=0.1 %cutout=0.1 Vmaxpu=1.2
New PVSystem.small_p1rlv37334_1_2_pv phases=1 bus1=p1rlv37334.1.2 kv=0.2402 irradiance=1 Pmpp=14.492 %Pmpp=100 kVA=14.492 conn=wye %cutin=0.1 %cutout=0.1 Vmaxpu=1.2
New PVSystem.small_p1rlv24876_1_2_pv phases=1 bus1=p1rlv24876.1.2 kv=0.2402 irradiance=1 Pmpp=13.93 %Pmpp=100 kVA=13.93 conn=wye %cutin=0.1 %cutout=0.1 Vmaxpu=1.2
New PVSystem.small_p1rlv18442_1_2_pv phases=1 bus1=p1rlv18442.1.2 kv=0.2402 irradiance=1 Pmpp=15.411 %Pmpp=100 kVA=15.411 conn=wye %cutin=0.1 %cutout=0.1 Vmaxpu=1.2
New PVSystem.small_p1rlv13955_1_2_pv phases=1 bus1=p1rlv13955.1.2 kv=0.2402 irradiance=1 Pmpp=44.448 %Pmpp=100 kVA=44.448 conn=wye %cutin=0.1 %cutout=0.1 Vmaxpu=1.2
New PVSystem.small_p1rlv12229_1_2_pv phases=1 bus1=p1rlv12229.1.2 kv=0.2402 irradiance=1 Pmpp=1.262 %Pmpp=100 kVA=1.262 conn=wye %cutin=0.1 %cutout=0.1 Vmaxpu=1.2
New PVSystem.small_p1rlv30737_1_2_pv phases=1 bus1=p1rlv30737.1.2 kv=0.2402 irradiance=1 Pmpp=7.711 %Pmpp=100 kVA=7.711 conn=wye %cutin=0.1 %cutout=0.1 Vmaxpu=1.2
New PVSystem.small_p1rlv34447_1_2_pv phases=1 bus1=p1rlv34447.1.2 kv=0.2402 irradiance=1 Pmpp=5.799 %Pmpp=100 kVA=5.799 conn=wye %cutin=0.1 %cutout=0.1 Vmaxpu=1.2
New PVSystem.small_p1rlv13734_1_2_pv phases=1 bus1=p1rlv13734.1.2 kv=0.2402 irradiance=1 Pmpp=4.483 %Pmpp=100 kVA=4.483 conn=wye %cutin=0.1 %cutout=0.1 Vmaxpu=1.2
New PVSystem.small_p1rlv10655_1_2_pv phases=1 bus1=p1rlv10655.1.2 kv=0.2402 irradiance=1 Pmpp=23.176 %Pmpp=100 kVA=23.176 conn=wye %cutin=0.1 %cutout=0.1 Vmaxpu=1.2
New PVSystem.small_p1rlv32894_1_2_pv phases=1 bus1=p1rlv32894.1.2 kv=0.2402 irradiance=1 Pmpp=21.312 %Pmpp=100 kVA=21.312 conn=wye %cutin=0.1 %cutout=0.1 Vmaxpu=1.2
New PVSystem.small_p1rlv15635_1_2_3_pv phases=3 bus1=p1rlv15635.1.2.3 kv=0.48 irradiance=1 Pmpp=91.281 %Pmpp=100 kVA=91.281 conn=wye %cutin=0.1 %cutout=0.1 Vmaxpu=1.2
New PVSystem.small_p1rlv30883_1_2_pv phases=1 bus1=p1rlv30883.1.2 kv=0.2402 irradiance=1 Pmpp=11.907 %Pmpp=100 kVA=11.907 conn=wye %cutin=0.1 %cutout=0.1 Vmaxpu=1.2
New PVSystem.small_p1rlv17751_1_2_pv phases=1 bus1=p1rlv17751.1.2 kv=0.2402 irradiance=1 Pmpp=44.679 %Pmpp=100 kVA=44.679 conn=wye %cutin=0.1 %cutout=0.1 Vmaxpu=1.2
New PVSystem.small_p1rlv31185_1_2_pv phases=1 bus1=p1rlv31185.1.2 kv=0.2402 irradiance=1 Pmpp=18.759 %Pmpp=100 kVA=18.759 conn=wye %cutin=0.1 %cutout=0.1 Vmaxpu=1.2
New PVSystem.small_p1rlv28968_1_2_pv phases=1 bus1=p1rlv28968.1.2 kv=0.2402 irradiance=1 Pmpp=9.349 %Pmpp=100 kVA=9.349 conn=wye %cutin=0.1 %cutout=0.1 Vmaxpu=1.2
New PVSystem.small_p1rlv15643_1_2_pv phases=1 bus1=p1rlv15643.1.2 kv=0.2402 irradiance=1 Pmpp=25.191 %Pmpp=100 kVA=25.191 conn=wye %cutin=0.1 %cutout=0.1 Vmaxpu=1.2
New PVSystem.small_p1rlv22036_1_2_pv phases=1 bus1=p1rlv22036.1.2 kv=0.2402 irradiance=1 Pmpp=3.989 %Pmpp=100 kVA=3.989 conn=wye %cutin=0.1 %cutout=0.1 Vmaxpu=1.2
New PVSystem.small_p1rlv15627_1_2_pv phases=1 bus1=p1rlv15627.1.2 kv=0.2402 irradiance=1 Pmpp=5.769 %Pmpp=100 kVA=5.769 conn=wye %cutin=0.1 %cutout=0.1 Vmaxpu=1.2
New PVSystem.small_p1rlv31138_1_2_pv phases=1 bus1=p1rlv31138.1.2 kv=0.2402 irradiance=1 Pmpp=16.163 %Pmpp=100 kVA=16.163 conn=wye %cutin=0.1 %cutout=0.1 Vmaxpu=1.2
New PVSystem.small_p1rlv30751_1_2_pv phases=1 bus1=p1rlv30751.1.2 kv=0.2402 irradiance=1 Pmpp=12.54 %Pmpp=100 kVA=12.54 conn=wye %cutin=0.1 %cutout=0.1 Vmaxpu=1.2
New PVSystem.small_p1rlv31177_1_2_pv phases=1 bus1=p1rlv31177.1.2 kv=0.2402 irradiance=1 Pmpp=24.851 %Pmpp=100 kVA=24.851 conn=wye %cutin=0.1 %cutout=0.1 Vmaxpu=1.2
New PVSystem.small_p1rlv13773_1_2_pv phases=1 bus1=p1rlv13773.1.2 kv=0.2402 irradiance=1 Pmpp=16.278 %Pmpp=100 kVA=16.278 conn=wye %cutin=0.1 %cutout=0.1 Vmaxpu=1.2
New PVSystem.small_p1rlv18468_1_2_pv phases=1 bus1=p1rlv18468.1.2 kv=0.2402 irradiance=1 Pmpp=16.831 %Pmpp=100 kVA=16.831 conn=wye %cutin=0.1 %cutout=0.1 Vmaxpu=1.2
New PVSystem.small_p1rlv19744_1_2_pv phases=1 bus1=p1rlv19744.1.2 kv=0.2402 irradiance=1 Pmpp=7.106 %Pmpp=100 kVA=7.106 conn=wye %cutin=0.1 %cutout=0.1 Vmaxpu=1.2
New PVSystem.small_p1rlv24857_1_2_pv phases=1 bus1=p1rlv24857.1.2 kv=0.2402 irradiance=1 Pmpp=19.693 %Pmpp=100 kVA=19.693 conn=wye %cutin=0.1 %cutout=0.1 Vmaxpu=1.2
New PVSystem.small_p1rlv18486_1_2_pv phases=1 bus1=p1rlv18486.1.2 kv=0.2402 irradiance=1 Pmpp=17.554 %Pmpp=100 kVA=17.554 conn=wye %cutin=0.1 %cutout=0.1 Vmaxpu=1.2
New PVSystem.small_p1rlv25936_1_2_pv phases=1 bus1=p1rlv25936.1.2 kv=0.2402 irradiance=1 Pmpp=18.759 %Pmpp=100 kVA=18.759 conn=wye %cutin=0.1 %cutout=0.1 Vmaxpu=1.2
New PVSystem.small_p1rlv16410_1_2_pv phases=1 bus1=p1rlv16410.1.2 kv=0.2402 irradiance=1 Pmpp=3.242 %Pmpp=100 kVA=3.242 conn=wye %cutin=0.1 %cutout=0.1 Vmaxpu=1.2
New PVSystem.small_p1rlv13940_1_2_pv phases=1 bus1=p1rlv13940.1.2 kv=0.2402 irradiance=1 Pmpp=13.453 %Pmpp=100 kVA=13.453 conn=wye %cutin=0.1 %cutout=0.1 Vmaxpu=1.2
New PVSystem.small_p1rlv25946_1_2_pv phases=1 bus1=p1rlv25946.1.2 kv=0.2402 irradiance=1 Pmpp=19.437 %Pmpp=100 kVA=19.437 conn=wye %cutin=0.1 %cutout=0.1 Vmaxpu=1.2
New PVSystem.small_p1rlv13738_1_2_pv phases=1 bus1=p1rlv13738.1.2 kv=0.2402 irradiance=1 Pmpp=9.174 %Pmpp=100 kVA=9.174 conn=wye %cutin=0.1 %cutout=0.1 Vmaxpu=1.2
New PVSystem.small_p1rlv15592_1_2_pv phases=1 bus1=p1rlv15592.1.2 kv=0.2402 irradiance=1 Pmpp=12.597 %Pmpp=100 kVA=12.597 conn=wye %cutin=0.1 %cutout=0.1 Vmaxpu=1.2
New PVSystem.small_p1rlv13748_1_2_pv phases=1 bus1=p1rlv13748.1.2 kv=0.2402 irradiance=1 Pmpp=9.168 %Pmpp=100 kVA=9.168 conn=wye %cutin=0.1 %cutout=0.1 Vmaxpu=1.2
New PVSystem.small_p1rlv17761_1_2_pv phases=1 bus1=p1rlv17761.1.2 kv=0.2402 irradiance=1 Pmpp=22.72 %Pmpp=100 kVA=22.72 conn=wye %cutin=0.1 %cutout=0.1 Vmaxpu=1.2
New PVSystem.small_p1rlv32971_1_2_pv phases=1 bus1=p1rlv32971.1.2 kv=0.2402 irradiance=1 Pmpp=7.326 %Pmpp=100 kVA=7.326 conn=wye %cutin=0.1 %cutout=0.1 Vmaxpu=1.2
New PVSystem.small_p1rlv12443_1_2_pv phases=1 bus1=p1rlv12443.1.2 kv=0.2402 irradiance=1 Pmpp=27.382 %Pmpp=100 kVA=27.382 conn=wye %cutin=0.1 %cutout=0.1 Vmaxpu=1.2
New PVSystem.small_p1rlv36496_1_2_pv phases=1 bus1=p1rlv36496.1.2 kv=0.2402 irradiance=1 Pmpp=12.135 %Pmpp=100 kVA=12.135 conn=wye %cutin=0.1 %cutout=0.1 Vmaxpu=1.2
New PVSystem.small_p1rlv17145_1_2_pv phases=1 bus1=p1rlv17145.1.2 kv=0.2402 irradiance=1 Pmpp=13.744 %Pmpp=100 kVA=13.744 conn=wye %cutin=0.1 %cutout=0.1 Vmaxpu=1.2
New PVSystem.small_p1rlv31152_1_2_pv phases=1 bus1=p1rlv31152.1.2 kv=0.2402 irradiance=1 Pmpp=30.912 %Pmpp=100 kVA=30.912 conn=wye %cutin=0.1 %cutout=0.1 Vmaxpu=1.2
New PVSystem.small_p1rlv34338_1_2_pv phases=1 bus1=p1rlv34338.1.2 kv=0.2402 irradiance=1 Pmpp=2.195 %Pmpp=100 kVA=2.195 conn=wye %cutin=0.1 %cutout=0.1 Vmaxpu=1.2
New PVSystem.small_p1rlv20334_1_2_pv phases=1 bus1=p1rlv20334.1.2 kv=0.2402 irradiance=1 Pmpp=18.327 %Pmpp=100 kVA=18.327 conn=wye %cutin=0.1 %cutout=0.1 Vmaxpu=1.2
New PVSystem.small_p1rlv18386_1_2_pv phases=1 bus1=p1rlv18386.1.2 kv=0.2402 irradiance=1 Pmpp=5.691 %Pmpp=100 kVA=5.691 conn=wye %cutin=0.1 %cutout=0.1 Vmaxpu=1.2
New PVSystem.small_p1rlv13022_1_2_pv phases=1 bus1=p1rlv13022.1.2 kv=0.2402 irradiance=1 Pmpp=29.196 %Pmpp=100 kVA=29.196 conn=wye %cutin=0.1 %cutout=0.1 Vmaxpu=1.2
New PVSystem.small_p1rlv28967_1_2_pv phases=1 bus1=p1rlv28967.1.2 kv=0.2402 irradiance=1 Pmpp=14.492 %Pmpp=100 kVA=14.492 conn=wye %cutin=0.1 %cutout=0.1 Vmaxpu=1.2
New PVSystem.small_p1rlv30989_1_2_pv phases=1 bus1=p1rlv30989.1.2 kv=0.2402 irradiance=1 Pmpp=11.646 %Pmpp=100 kVA=11.646 conn=wye %cutin=0.1 %cutout=0.1 Vmaxpu=1.2
New PVSystem.small_p1rlv15587_1_2_pv phases=1 bus1=p1rlv15587.1.2 kv=0.2402 irradiance=1 Pmpp=13.358 %Pmpp=100 kVA=13.358 conn=wye %cutin=0.1 %cutout=0.1 Vmaxpu=1.2
New PVSystem.small_p1rlv13331_1_2_pv phases=1 bus1=p1rlv13331.1.2 kv=0.2402 irradiance=1 Pmpp=11.381 %Pmpp=100 kVA=11.381 conn=wye %cutin=0.1 %cutout=0.1 Vmaxpu=1.2
New PVSystem.small_p1rlv22045_1_2_pv phases=1 bus1=p1rlv22045.1.2 kv=0.2402 irradiance=1 Pmpp=14.369 %Pmpp=100 kVA=14.369 conn=wye %cutin=0.1 %cutout=0.1 Vmaxpu=1.2
New PVSystem.small_p1rlv22031_1_2_pv phases=1 bus1=p1rlv22031.1.2 kv=0.2402 irradiance=1 Pmpp=31.758 %Pmpp=100 kVA=31.758 conn=wye %cutin=0.1 %cutout=0.1 Vmaxpu=1.2
New PVSystem.small_p1rlv30835_1_2_pv phases=1 bus1=p1rlv30835.1.2 kv=0.2402 irradiance=1 Pmpp=34.53 %Pmpp=100 kVA=34.53 conn=wye %cutin=0.1 %cutout=0.1 Vmaxpu=1.2
New PVSystem.small_p1rlv30791_1_2_pv phases=1 bus1=p1rlv30791.1.2 kv=0.2402 irradiance=1 Pmpp=18.759 %Pmpp=100 kVA=18.759 conn=wye %cutin=0.1 %cutout=0.1 Vmaxpu=1.2
New PVSystem.small_p1rlv30808_1_2_pv phases=1 bus1=p1rlv30808.1.2 kv=0.2402 irradiance=1 Pmpp=6.527 %Pmpp=100 kVA=6.527 conn=wye %cutin=0.1 %cutout=0.1 Vmaxpu=1.2
New PVSystem.small_p1rlv19813_1_2_pv phases=1 bus1=p1rlv19813.1.2 kv=0.2402 irradiance=1 Pmpp=5.369 %Pmpp=100 kVA=5.369 conn=wye %cutin=0.1 %cutout=0.1 Vmaxpu=1.2
New PVSystem.small_p1rlv27048_1_2_pv phases=1 bus1=p1rlv27048.1.2 kv=0.2402 irradiance=1 Pmpp=6.948 %Pmpp=100 kVA=6.948 conn=wye %cutin=0.1 %cutout=0.1 Vmaxpu=1.2
New PVSystem.small_p1rlv16428_1_2_pv phases=1 bus1=p1rlv16428.1.2 kv=0.2402 irradiance=1 Pmpp=12.848 %Pmpp=100 kVA=12.848 conn=wye %cutin=0.1 %cutout=0.1 Vmaxpu=1.2
New PVSystem.small_p1rlv31122_1_2_pv phases=1 bus1=p1rlv31122.1.2 kv=0.2402 irradiance=1 Pmpp=14.757 %Pmpp=100 kVA=14.757 conn=wye %cutin=0.1 %cutout=0.1 Vmaxpu=1.2
New PVSystem.small_p1rlv36499_1_2_pv phases=1 bus1=p1rlv36499.1.2 kv=0.2402 irradiance=1 Pmpp=15.569 %Pmpp=100 kVA=15.569 conn=wye %cutin=0.1 %cutout=0.1 Vmaxpu=1.2
New PVSystem.small_p1rlv15612_1_2_pv phases=1 bus1=p1rlv15612.1.2 kv=0.2402 irradiance=1 Pmpp=15.165 %Pmpp=100 kVA=15.165 conn=wye %cutin=0.1 %cutout=0.1 Vmaxpu=1.2
New PVSystem.small_p1rlv30873_1_2_pv phases=1 bus1=p1rlv30873.1.2 kv=0.2402 irradiance=1 Pmpp=12.848 %Pmpp=100 kVA=12.848 conn=wye %cutin=0.1 %cutout=0.1 Vmaxpu=1.2
New PVSystem.small_p1rlv16400_1_2_pv phases=1 bus1=p1rlv16400.1.2 kv=0.2402 irradiance=1 Pmpp=15.682 %Pmpp=100 kVA=15.682 conn=wye %cutin=0.1 %cutout=0.1 Vmaxpu=1.2
New PVSystem.small_p1rlv19724_1_2_pv phases=1 bus1=p1rlv19724.1.2 kv=0.2402 irradiance=1 Pmpp=21.448 %Pmpp=100 kVA=21.448 conn=wye %cutin=0.1 %cutout=0.1 Vmaxpu=1.2
New PVSystem.small_p1rlv17348_1_2_pv phases=1 bus1=p1rlv17348.1.2 kv=0.2402 irradiance=1 Pmpp=24.081 %Pmpp=100 kVA=24.081 conn=wye %cutin=0.1 %cutout=0.1 Vmaxpu=1.2
New PVSystem.small_p1rlv37151_1_2_pv phases=1 bus1=p1rlv37151.1.2 kv=0.2402 irradiance=1 Pmpp=22.846 %Pmpp=100 kVA=22.846 conn=wye %cutin=0.1 %cutout=0.1 Vmaxpu=1.2
New PVSystem.small_p1rlv30739_1_2_pv phases=1 bus1=p1rlv30739.1.2 kv=0.2402 irradiance=1 Pmpp=11.36 %Pmpp=100 kVA=11.36 conn=wye %cutin=0.1 %cutout=0.1 Vmaxpu=1.2
New PVSystem.small_p1rlv28583_1_2_pv phases=1 bus1=p1rlv28583.1.2 kv=0.2402 irradiance=1 Pmpp=14.857 %Pmpp=100 kVA=14.857 conn=wye %cutin=0.1 %cutout=0.1 Vmaxpu=1.2
New PVSystem.small_p1rlv10451_1_2_pv phases=1 bus1=p1rlv10451.1.2 kv=0.2402 irradiance=1 Pmpp=34.53 %Pmpp=100 kVA=34.53 conn=wye %cutin=0.1 %cutout=0.1 Vmaxpu=1.2
New PVSystem.small_p1rlv14354_1_2_pv phases=1 bus1=p1rlv14354.1.2 kv=0.2402 irradiance=1 Pmpp=15.135 %Pmpp=100 kVA=15.135 conn=wye %cutin=0.1 %cutout=0.1 Vmaxpu=1.2

Solve
